12
Energy = -232.0889242559
C     1.4059744   -0.0000000    0.0000000 
C     0.7029872    1.2176096    0.0000000 
C    -0.7029872    1.2176096    0.0000000 
C    -1.4059744    0.0000000    0.0000000 
C    -0.7029872   -1.2176096    0.0000000 
C     0.7029872   -1.2176096    0.0000000 
H     2.5070793    0.0000000    0.0000000 
H     1.2535396    2.1711943    0.0000000 
H    -1.2535396    2.1711943    0.0000000 
H    -2.5070793    0.0000000    0.0000000 
H    -1.2535396   -2.1711943    0.0000000 
H     1.2535396   -2.1711943    0.0000000 
